Version 4
SHEET 1 920 680
WIRE 464 -224 64 -224
WIRE 464 -192 464 -224
WIRE 64 48 64 -224
WIRE 464 64 464 0
WIRE 288 144 176 144
WIRE 416 144 368 144
WIRE 544 144 464 144
WIRE 704 144 608 144
WIRE 864 144 704 144
WIRE 176 192 176 144
WIRE 704 224 704 144
WIRE 864 224 864 144
WIRE 64 336 64 128
WIRE 176 336 176 272
WIRE 176 336 64 336
WIRE 464 336 464 160
WIRE 464 336 176 336
WIRE 704 336 704 288
WIRE 704 336 464 336
WIRE 864 336 864 304
WIRE 864 336 704 336
WIRE 464 384 464 336
FLAG 464 384 0
SYMBOL voltage 64 32 R0
WINDOW 123 0 0 Left 0
WINDOW 39 0 0 Left 0
SYMATTR InstName V1
SYMATTR Value 12
SYMBOL voltage 176 176 R0
WINDOW 3 -117 289 Left 2
WINDOW 123 0 0 Left 0
WINDOW 39 0 0 Left 0
SYMATTR InstName V2
SYMATTR Value PULSE(0 12 0 1n 1n .00001 .00002)
SYMBOL ind 448 -208 R0
SYMATTR InstName L1
SYMBOL res 448 -96 R0
SYMATTR InstName R1
SYMBOL res 384 128 R90
WINDOW 0 0 56 VBottom 2
WINDOW 3 32 56 VTop 2
SYMATTR InstName R2
SYMBOL diode 544 160 R270
WINDOW 0 32 32 VTop 2
WINDOW 3 0 32 VBottom 2
SYMATTR InstName D1
SYMBOL cap 688 224 R0
SYMATTR InstName C1
SYMBOL res 848 208 R0
SYMATTR InstName R3
SYMBOL pmos 416 64 R0
WINDOW 3 52 67 Left 2
SYMATTR InstName M1
SYMATTR Value IRF7204
TEXT 64 384 Left 2 !.tran 0 .002 .001 1n
