Version 4
SHEET 1 1820 680
WIRE 1344 -384 880 -384
WIRE 1632 -384 1424 -384
WIRE 1184 -272 992 -272
WIRE 1184 -208 1184 -272
WIRE 1264 -208 1184 -208
WIRE 1632 -208 1632 -384
WIRE 1632 -208 1552 -208
WIRE 992 -176 992 -192
WIRE 128 -160 -64 -160
WIRE 464 -160 256 -160
WIRE 512 -160 512 -256
WIRE 512 -160 464 -160
WIRE 592 -160 512 -160
WIRE 640 -160 592 -160
WIRE 464 -144 464 -160
WIRE 592 -144 592 -160
WIRE 640 -144 640 -160
WIRE 880 -144 880 -384
WIRE 880 -144 768 -144
WIRE 1264 -144 880 -144
WIRE 1616 -144 1552 -144
WIRE 1728 -144 1616 -144
WIRE 880 -128 880 -144
WIRE 768 -112 768 -144
WIRE 352 -64 256 -64
WIRE 464 -64 464 -80
WIRE 464 -64 416 -64
WIRE 512 -64 464 -64
WIRE 528 -64 528 -80
WIRE 528 -64 512 -64
WIRE 592 -64 592 -80
WIRE 592 -64 528 -64
WIRE 640 -64 592 -64
WIRE 1728 -32 1728 -64
WIRE 768 -16 768 -48
WIRE 880 -16 880 -48
WIRE 880 -16 768 -16
WIRE 1264 -16 1120 -16
WIRE 1616 -16 1616 -144
WIRE 1616 -16 1552 -16
WIRE 880 0 880 -16
WIRE -64 32 -64 -160
WIRE 1072 48 1024 48
WIRE 1216 48 1136 48
WIRE 1264 48 1216 48
WIRE 1632 48 1552 48
WIRE 496 64 432 64
WIRE 1632 64 1632 48
WIRE 1024 80 1024 48
WIRE 1024 80 992 80
WIRE 128 112 128 -64
WIRE 352 112 352 64
WIRE 352 112 128 112
WIRE 1264 112 1184 112
WIRE 1744 112 1552 112
WIRE 1024 128 1024 80
WIRE 1072 128 1024 128
WIRE 1184 128 1184 112
WIRE 1184 128 1152 128
WIRE 352 144 352 112
WIRE 496 144 496 64
WIRE 496 144 416 144
WIRE 48 160 0 160
WIRE 128 160 128 112
WIRE 1216 176 1216 48
WIRE 1264 176 1216 176
WIRE 1616 176 1552 176
WIRE 1616 192 1616 176
WIRE 48 240 48 160
WIRE 80 240 48 240
WIRE 1264 240 1184 240
WIRE -64 272 -64 112
WIRE 0 272 0 240
WIRE 0 272 -64 272
WIRE 80 272 0 272
WIRE 128 272 128 256
WIRE 128 272 80 272
WIRE 496 272 496 208
WIRE 496 272 128 272
WIRE 1184 288 1184 240
WIRE 80 304 80 272
WIRE 176 304 80 304
WIRE 1184 384 1184 352
FLAG 176 304 0
FLAG 512 -256 0
FLAG 512 -64 Vo
FLAG 1728 -32 0
FLAG 1120 -16 Osc
FLAG 1632 64 0
FLAG 992 80 0
FLAG 1184 384 0
FLAG 1616 192 0
FLAG 880 0 0
FLAG 992 -176 0
FLAG 1744 112 Pwm
SYMBOL voltage -64 16 R0
WINDOW 123 0 0 Left 0
WINDOW 39 0 0 Left 0
SYMATTR InstName V1
SYMATTR Value 12
SYMBOL res 624 -160 R0
SYMATTR InstName R1
SYMATTR Value 5
SYMBOL polcap 608 -80 R180
WINDOW 0 24 57 Left 2
WINDOW 3 24 8 Left 2
SYMATTR InstName C1
SYMATTR Value 10µ
SYMATTR Description Capacitor
SYMATTR Type cap
SYMATTR SpiceLine V=100 Irms=35m Rser=1.22436 Lser=2.28242n
SYMBOL voltage 0 144 R0
WINDOW 3 -250 258 Left 2
WINDOW 123 0 0 Left 0
WINDOW 39 0 0 Left 0
SYMATTR Value PULSE(0 5 0 1n 1n 0.72u 5u)
SYMATTR InstName V2
SYMBOL 750313974 128 -160 R0
SYMATTR InstName U1
SYMBOL schottky 352 -48 R270
WINDOW 0 32 32 VTop 2
WINDOW 3 0 32 VBottom 2
SYMATTR InstName D1
SYMATTR Value 1N5819
SYMATTR Description Diode
SYMATTR Type diode
SYMBOL schottky 352 160 R270
WINDOW 0 32 32 VTop 2
WINDOW 3 0 32 VBottom 2
SYMATTR InstName D2
SYMATTR Value 1N5819
SYMATTR Description Diode
SYMATTR Type diode
SYMBOL res 448 48 R90
WINDOW 0 0 56 VBottom 2
WINDOW 3 32 56 VTop 2
SYMATTR InstName R2
SYMATTR Value 47
SYMBOL cap 480 144 R0
SYMATTR InstName C2
SYMATTR Value 1n
SYMBOL nmos 80 160 R0
SYMATTR InstName M1
SYMATTR Value IRF530
SYMBOL polcap 480 -80 R180
WINDOW 0 24 57 Left 2
WINDOW 3 24 8 Left 2
SYMATTR InstName C3
SYMATTR Value 10µ
SYMATTR Description Capacitor
SYMATTR Type cap
SYMATTR SpiceLine V=100 Irms=35m Rser=1.22436 Lser=2.28242n
SYMBOL SG3525A 1408 -112 R0
SYMATTR InstName U2
SYMATTR Value sg3525a
SYMBOL voltage 1728 -160 R0
WINDOW 123 0 0 Left 0
WINDOW 39 0 0 Left 0
SYMATTR InstName V3
SYMATTR Value 12
SYMBOL res 1168 112 R90
WINDOW 0 0 56 VBottom 2
WINDOW 3 32 56 VTop 2
SYMATTR InstName R3
SYMATTR Value 5k
SYMBOL cap 1136 32 R90
WINDOW 0 0 32 VBottom 2
WINDOW 3 32 32 VTop 2
SYMATTR InstName C4
SYMATTR Value 1n
SYMBOL cap 1168 288 R0
SYMATTR InstName C5
SYMATTR Value 1µ
SYMBOL res 1440 -400 R90
WINDOW 0 0 56 VBottom 2
WINDOW 3 32 56 VTop 2
SYMATTR InstName R4
SYMATTR Value 5k
SYMBOL res 896 -32 R180
WINDOW 0 36 76 Left 2
WINDOW 3 36 40 Left 2
SYMATTR InstName R5
SYMATTR Value 5k
SYMBOL voltage 992 -288 R0
WINDOW 123 0 0 Left 0
WINDOW 39 0 0 Left 0
SYMATTR InstName V4
SYMATTR Value PULSE(0 5v 0 5u 1n 1n 5u)
SYMBOL cap 752 -112 R0
SYMATTR InstName C6
SYMATTR Value 10µ
TEXT -248 368 Left 2 !.model MYSW SW(Ron=0.00001 Roff=10Meg Vt=.5 Vh=-.4)
TEXT -256 424 Left 2 !.tran 0 3m 0m 5n startup
TEXT 592 328 Left 2 ;Modelos de terceros
TEXT 600 368 Left 2 !.inc SG3525A.sub
