Version 4
SHEET 1 880 680
WIRE 128 -160 -64 -160
WIRE 464 -160 256 -160
WIRE 512 -160 512 -256
WIRE 512 -160 464 -160
WIRE 592 -160 512 -160
WIRE 640 -160 592 -160
WIRE 464 -144 464 -160
WIRE 592 -144 592 -160
WIRE 640 -144 640 -160
WIRE 352 -64 256 -64
WIRE 464 -64 464 -80
WIRE 464 -64 416 -64
WIRE 512 -64 464 -64
WIRE 528 -64 528 -80
WIRE 528 -64 512 -64
WIRE 592 -64 592 -80
WIRE 592 -64 528 -64
WIRE 640 -64 592 -64
WIRE -64 32 -64 -160
WIRE 496 64 432 64
WIRE 128 112 128 -64
WIRE 352 112 352 64
WIRE 352 112 128 112
WIRE 352 144 352 112
WIRE 496 144 496 64
WIRE 496 144 416 144
WIRE 48 160 0 160
WIRE 128 160 128 112
WIRE 48 240 48 160
WIRE 80 240 48 240
WIRE -64 272 -64 112
WIRE 0 272 0 240
WIRE 0 272 -64 272
WIRE 80 272 0 272
WIRE 128 272 128 256
WIRE 128 272 80 272
WIRE 496 272 496 208
WIRE 496 272 128 272
WIRE 80 304 80 272
WIRE 176 304 80 304
FLAG 176 304 0
FLAG 512 -256 0
FLAG 512 -64 Vo
SYMBOL voltage -64 16 R0
WINDOW 123 0 0 Left 0
WINDOW 39 0 0 Left 0
SYMATTR InstName V1
SYMATTR Value 12
SYMBOL res 624 -160 R0
SYMATTR InstName R1
SYMATTR Value 5
SYMBOL polcap 608 -80 R180
WINDOW 0 24 57 Left 2
WINDOW 3 24 8 Left 2
SYMATTR InstName C1
SYMATTR Value 10µ
SYMATTR Description Capacitor
SYMATTR Type cap
SYMATTR SpiceLine V=100 Irms=35m Rser=1.22436 Lser=2.28242n
SYMBOL voltage 0 144 R0
WINDOW 3 -250 258 Left 2
WINDOW 123 0 0 Left 0
WINDOW 39 0 0 Left 0
SYMATTR Value PULSE(0 5 0 1n 1n 0.72u 5u)
SYMATTR InstName V2
SYMBOL 750313974 128 -160 R0
SYMATTR InstName U1
SYMBOL schottky 352 -48 R270
WINDOW 0 32 32 VTop 2
WINDOW 3 0 32 VBottom 2
SYMATTR InstName D1
SYMATTR Value 1N5819
SYMATTR Description Diode
SYMATTR Type diode
SYMBOL schottky 352 160 R270
WINDOW 0 32 32 VTop 2
WINDOW 3 0 32 VBottom 2
SYMATTR InstName D2
SYMATTR Value 1N5819
SYMATTR Description Diode
SYMATTR Type diode
SYMBOL res 448 48 R90
WINDOW 0 0 56 VBottom 2
WINDOW 3 32 56 VTop 2
SYMATTR InstName R2
SYMATTR Value 47
SYMBOL cap 480 144 R0
SYMATTR InstName C2
SYMATTR Value 1n
SYMBOL nmos 80 160 R0
SYMATTR InstName M1
SYMATTR Value IRF530
SYMBOL polcap 480 -80 R180
WINDOW 0 24 57 Left 2
WINDOW 3 24 8 Left 2
SYMATTR InstName C3
SYMATTR Value 10µ
SYMATTR Description Capacitor
SYMATTR Type cap
SYMATTR SpiceLine V=100 Irms=35m Rser=1.22436 Lser=2.28242n
TEXT -248 368 Left 2 !.model MYSW SW(Ron=0.00001 Roff=10Meg Vt=.5 Vh=-.4)
TEXT -256 424 Left 2 !.tran 0 8m 6m 10n startup
TEXT 592 328 Left 2 ;Modelos de terceros
