Version 4
SHEET 1 1932 680
WIRE 1104 -208 736 -208
WIRE 1264 -208 1104 -208
WIRE 128 -160 -64 -160
WIRE 480 -160 256 -160
WIRE 512 -160 512 -256
WIRE 512 -160 480 -160
WIRE 592 -160 512 -160
WIRE 640 -160 592 -160
WIRE 480 -144 480 -160
WIRE 592 -144 592 -160
WIRE 640 -144 640 -160
WIRE 1040 -144 880 -144
WIRE 1264 -144 1040 -144
WIRE 1616 -144 1552 -144
WIRE 1648 -144 1616 -144
WIRE 1728 -144 1648 -144
WIRE 880 -112 880 -144
WIRE 352 -64 256 -64
WIRE 480 -64 480 -80
WIRE 480 -64 416 -64
WIRE 512 -64 480 -64
WIRE 528 -64 528 -80
WIRE 528 -64 512 -64
WIRE 592 -64 592 -80
WIRE 592 -64 528 -64
WIRE 640 -64 592 -64
WIRE 1728 -32 1728 -64
WIRE 528 -16 528 -64
WIRE 736 -16 736 -208
WIRE 736 -16 528 -16
WIRE 1264 -16 1120 -16
WIRE 1616 -16 1616 -144
WIRE 1616 -16 1552 -16
WIRE 880 0 880 -32
WIRE -64 32 -64 -160
WIRE 1072 48 1024 48
WIRE 1216 48 1136 48
WIRE 1264 48 1216 48
WIRE 1632 48 1552 48
WIRE 496 64 432 64
WIRE 1632 64 1632 48
WIRE 1024 80 1024 48
WIRE 1024 80 992 80
WIRE 128 112 128 -64
WIRE 352 112 352 64
WIRE 352 112 128 112
WIRE 1264 112 1184 112
WIRE 1680 112 1552 112
WIRE 1856 112 1760 112
WIRE 1024 128 1024 80
WIRE 1072 128 1024 128
WIRE 1184 128 1184 112
WIRE 1184 128 1152 128
WIRE 352 144 352 112
WIRE 496 144 496 64
WIRE 496 144 416 144
WIRE 128 160 128 112
WIRE 1216 176 1216 48
WIRE 1264 176 1216 176
WIRE 1616 176 1552 176
WIRE 1616 192 1616 176
WIRE 736 224 736 -16
WIRE 912 224 736 224
WIRE 64 240 48 240
WIRE 80 240 64 240
WIRE 1264 240 1184 240
WIRE 1632 240 1552 240
WIRE 1632 256 1632 240
WIRE 1824 256 1632 256
WIRE -64 272 -64 112
WIRE 80 272 -64 272
WIRE 128 272 128 256
WIRE 128 272 80 272
WIRE 496 272 496 208
WIRE 496 272 128 272
WIRE 1184 288 1184 240
WIRE 80 304 80 272
WIRE 176 304 80 304
WIRE 1632 320 1632 256
WIRE 1824 352 1824 256
WIRE 1184 384 1184 352
WIRE 1632 464 1632 400
WIRE 912 528 912 224
WIRE 1584 528 912 528
WIRE 1632 528 1584 528
WIRE 1584 544 1584 528
WIRE 1824 544 1824 416
WIRE 1824 544 1584 544
FLAG 176 304 0
FLAG 512 -256 0
FLAG 512 -64 Vo
FLAG 1728 -32 0
FLAG 1120 -16 Osc
FLAG 1632 64 0
FLAG 992 80 0
FLAG 1184 384 0
FLAG 1616 192 0
FLAG 880 0 0
FLAG 1856 112 Pwm
FLAG 1104 -288 0
FLAG 1040 -64 0
FLAG 64 240 Pwm
FLAG 1648 -80 0
SYMBOL voltage -64 16 R0
WINDOW 123 0 0 Left 0
WINDOW 39 0 0 Left 0
SYMATTR InstName V1
SYMATTR Value 12
SYMBOL res 624 -160 R0
SYMATTR InstName R1
SYMATTR Value 5
SYMBOL polcap 608 -80 R180
WINDOW 0 24 57 Left 2
WINDOW 3 24 8 Left 2
SYMATTR InstName C1
SYMATTR Value 47µ
SYMATTR Description Capacitor
SYMATTR Type cap
SYMATTR SpiceLine V=100 Irms=35m Rser=1.22436 Lser=2.28242n
SYMBOL 750313974 128 -160 R0
SYMATTR InstName U1
SYMBOL schottky 352 -48 R270
WINDOW 0 32 32 VTop 2
WINDOW 3 0 32 VBottom 2
SYMATTR InstName D1
SYMATTR Value 1N5819
SYMATTR Description Diode
SYMATTR Type diode
SYMBOL diode 352 160 R270
WINDOW 0 32 32 VTop 2
WINDOW 3 0 32 VBottom 2
SYMATTR InstName D2
SYMATTR Value MURS120
SYMBOL res 448 48 R90
WINDOW 0 0 56 VBottom 2
WINDOW 3 32 56 VTop 2
SYMATTR InstName R2
SYMATTR Value 100
SYMBOL cap 480 144 R0
SYMATTR InstName C2
SYMATTR Value 1n
SYMBOL nmos 80 160 R0
SYMATTR InstName M1
SYMATTR Value IRF530
SYMBOL SG3525A 1408 -112 R0
SYMATTR InstName U2
SYMATTR Value sg3525a
SYMBOL voltage 1728 -160 R0
WINDOW 123 0 0 Left 0
WINDOW 39 0 0 Left 0
SYMATTR InstName V3
SYMATTR Value 12
SYMBOL res 1168 112 R90
WINDOW 0 0 56 VBottom 2
WINDOW 3 32 56 VTop 2
SYMATTR InstName R3
SYMATTR Value 3.7k
SYMBOL cap 1136 32 R90
WINDOW 0 0 32 VBottom 2
WINDOW 3 32 32 VTop 2
SYMATTR InstName C4
SYMATTR Value 1n
SYMBOL cap 1168 288 R0
SYMATTR InstName C5
SYMATTR Value 1µ
SYMBOL voltage 880 -128 R0
WINDOW 123 0 0 Left 0
WINDOW 39 0 0 Left 0
SYMATTR InstName V4
SYMATTR Value 0.8
SYMBOL res 1024 -160 R0
SYMATTR InstName R4
SYMATTR Value 1k
SYMBOL res 1088 -304 R0
SYMATTR InstName R5
SYMATTR Value 1k
SYMBOL res 1616 304 R0
SYMATTR InstName R6
SYMATTR Value 10k
SYMBOL cap 1616 464 R0
SYMATTR InstName C6
SYMATTR Value 10n
SYMBOL res 1776 96 R90
WINDOW 0 0 56 VBottom 2
WINDOW 3 32 56 VTop 2
SYMATTR InstName R7
SYMATTR Value 100
SYMBOL cap 1632 -144 R0
SYMATTR InstName C7
SYMATTR Value 100n
SYMBOL cap 1808 352 R0
SYMATTR InstName C8
SYMATTR Value 10n
SYMBOL polcap 496 -80 R180
WINDOW 0 24 57 Left 2
WINDOW 3 24 8 Left 2
SYMATTR InstName C3
SYMATTR Value 47µ
SYMATTR Description Capacitor
SYMATTR Type cap
SYMATTR SpiceLine V=100 Irms=35m Rser=1.22436 Lser=2.28242n
TEXT -256 424 Left 2 !.tran 1 2m 1m 5n startup
TEXT 592 328 Left 2 ;Modelos de terceros
TEXT 600 368 Left 2 !.inc SG3525A.sub
